[General]
network = OpsNetD



# cmdenv settings
cmdenv-express-mode = false
cmdenv-event-banners = false
**.cmdenv-log-level = INFO
cmdenv-log-prefix = %l %C: 
cmdenv-output-file = ${resultdir}/${runid}-log2.txt



# event logging
record-eventlog = false
eventlog-file = ${resultdir}/${runid}-log1.txt



# simulation control parameters
sim-time-limit = 2071530s
repeat = 1



# RNG initialization
num-rngs = 4
seed-0-mt = 128
seed-1-mt = 128
seed-2-mt = 128
seed-3-mt = 128



# statistic collection
**.vector-recording = false
**.scalar-recording = false
**.statistic-recording = false



# network parameters
**.numNodes = 50



# application layer (promote)
**.notificationGenDistribution = 2 # exponential generation with mean notificationGenInterval
**.promote.notificationGenStartMaxTime = 3600s
**.promote.notificationGenInterval = 7200s
**.promote.notificationValidDuration = 172800s
**.promote.dataPayloadSizeInBytes = 1000
**.promote.dataPacketSizeInBytes = 1000
**.promote.usedRNG = 3



# forwarding layer parameters
**.forwardingLayer = 2 # keetchi
**.forwarding.agingInterval = 300s
**.forwarding.maximumCacheSize = 1000000000byte # 1 GB cache
**.forwarding.neighbourhoodChangeSignificanceThreshold = 0.25
**.forwarding.coolOffDuration = 300s
**.forwarding.learningConst = 0.5
**.forwarding.backoffTimerIncrementFactor = 1.5



# wireless interface parameters
**.wirelessIfc.wirelessRange = 50m
**.wirelessIfc.neighbourScanInterval = 1s
**.wirelessIfc.bandwidthBitRate = 2100000bps # 2.1 Mbps
**.wirelessIfc.wirelessHeaderSize = 16byte # BT header



# # INET mobility parameters (BonnMotion)
# **.mobilityType = "BonnMotionMobility"
# **.mobility.traceFile = "50_traces.gpx.movements"
# **.mobility.nodeId = -1  #means "host module's index"



# INET mobility parameters (RandomWPMobility)
**.constraintAreaMinX = 0m
**.constraintAreaMinY = 0m
**.constraintAreaMinZ = 0m
**.constraintAreaMaxX = 45000m  # from paper on SFO taxi trace
**.constraintAreaMaxY = 45000m  # from paper on SFO taxi trace
**.constraintAreaMaxZ = 0m
**.updateInterval = 0.1s # test with 0s too, and let getCurrentPosition update the display string from a test module
**.mobility.initFromDisplayString = false
**.mobilityType = "RandomWPMobility"
**.mobility.initFromDisplayString = false
**.mobility.speed = 43810mps # from paper on SFO taxi trace
**.mobility.waitTime = 300s



# # INET mobility parameters (SWIM)
# **.constraintAreaMinX = 0m
# **.constraintAreaMinY = 0m
# **.constraintAreaMinZ = 0m
# **.constraintAreaMaxX = 45000m
# **.constraintAreaMaxY = 45000m
# **.constraintAreaMaxZ = 0m
# **.updateInterval = 0.1s # test with 0s too, and let getCurrentPosition update the display string from a test module
# **.mobility.initFromDisplayString = false
# **.mobilityType = "SWIMMobility"
# **.mobility.noOfLocations = 20
# **.mobility.Hosts = 50
# **.mobility.popularityDecisionThreshold = 7
# **.mobility.returnHomePercentage = 15
# **.mobility.neighbourLocationLimit = 1000m
# **.mobility.speed = 43810mps
# **.mobility.radius = 250m
# **.mobility.alpha = 0.5
# **.mobility.waitTime = 300s
# **.mobility.usedRNG = 2

