[General]
network = OPSNetwork



#simulation control parameters
sim-time-limit = 10000s # 1 day
#repeat = 7



# RNG initialization
num-rngs = 6
seed-0-mt = 1000   # left specifically unused for "unknown" RNG uses
seed-1-mt = 2000   # application
seed-2-mt = 3000   # user behaviour model RNG
seed-3-mt = 4000   # forwarding RNG
seed-4-mt = 5000   # link layer RNG
seed-5-mt = 6000   # mobility RNG



# results location
result-dir = results/
output-vector-file = "${resultdir}/${datetime}-${inifile}-${configname}-${runnumber}.vec"
output-scalar-file = "${resultdir}/${datetime}-${inifile}-${configname}-${runnumber}.sca"



# statistic collection
**.vector-recording = true
**.scalar-recording = true
**.statistic-recording = true



# network parameters
**.numNodes = 100




[Config Herald-Epidemic-SFO]

# application layer (herald)
**.applicationLayer = "KHeraldApp"
**.app.dataGenerationInterval = 900s # every 1/4 of an hour - we simulate for 7 days
**.app.dataSizeInBytes = 10000
**.app.popularityAssignmentPercentage = 25
**.app.usedRNG = 1



# forwarding layer parameters
**.forwardingLayer = "KEpidemicRoutingLayer"
**.forwarding.maximumCacheSize = 5000000byte # 5 MB cache
**.forwarding.antiEntropyInterval = 300s
**.forwarding.maximumHopCount = 25
**.forwarding.usedRNG = 3



# wireless interface parameters
**.linkLayer = "KWirelessInterface"
**.link.wirelessRange = 30m
**.link.neighbourScanInterval = 1s
**.link.bandwidthBitRate = 100000bps # 100 Kbps
**.link.wirelessHeaderSize = 16byte # BT header
**.link.usedRNG = 4



# INET mobility parameters (BonnMotion) with SF-Taxi trace
**.mobilityType = "BonnMotionMobility"
**.mobility.traceFile = "./all_traces.gpx.movements"
**.mobility.nodeId = -1  #means "host module's index"



[Config Herald-Optimum-Delay-SFO]

# application layer (herald)
**.applicationLayer = "KHeraldApp"
**.app.dataGenerationInterval = 900s # every 1/4 of an hour - we simulate for 7 days
**.app.dataSizeInBytes = 10000
**.app.popularityAssignmentPercentage = 25
**.app.usedRNG = 1



# forwarding layer parameters
**.forwardingLayer = "KOptimumDelayRoutingLayer"



# wireless interface parameters
**.linkLayer = "KWirelessInterface"
**.link.wirelessRange = 30m
**.link.neighbourScanInterval = 1s
**.link.bandwidthBitRate = 100000bps # 100 Kbps
**.link.wirelessHeaderSize = 16byte # BT header
**.link.usedRNG = 4



# INET mobility parameters (BonnMotion) with SF-Taxi trace
**.mobilityType = "BonnMotionMobility"
**.mobility.traceFile = "./all_traces.gpx.movements"
**.mobility.nodeId = -1  #means "host module's index"

[Config Herald-RSSI-SWIM]

# application layer (herald)
**.applicationLayer = "KHeraldApp"
**.app.dataGenerationInterval = 900s # every 1/4 of an hour - we simulate for 7 days
**.app.dataSizeInBytes = 10000
**.app.popularityAssignmentPercentage = 25
**.app.usedRNG = 1



# forwarding layer parameters
**.forwardingLayer = "KRSSILayer"
**.forwarding.maximumCacheSize = 5000000byte # 5 MB cache
**.forwarding.antiEntropyInterval = 300s
**.forwarding.maximumHopCount = 25
**.forwarding.usedRNG = 3
#**.forwarding.selectedPriorityList = "PRIORITY_SAME_DIRECTION PRIORITY_OPPOSITE_DIRECTION PRIORITY_STATIONARY"



# wireless interface parameters
**.linkLayer = "KWirelessInterfaceWithAngle"
**.link.wirelessRange = 30m
**.link.neighbourScanInterval = 1s
**.link.bandwidthBitRate = 100000bps # 100 Kbps
**.link.wirelessHeaderSize = 16byte # BT header
**.link.usedRNG = 4



# INET mobility parameters (BonnMotion) with SF-Taxi trace
#**.mobilityType = "BonnMotionMobility"
#**.mobility.traceFile = "./all_traces.gpx.movements"
#**.mobility.nodeId = -1  #means "host module's index"

# INET mobility parameters (SWIM)
**.constraintAreaMinX = 0m
**.constraintAreaMinY = 0m
**.constraintAreaMinZ = 0m
**.constraintAreaMaxX = 1500m
**.constraintAreaMaxY = 1500m
**.constraintAreaMaxZ = 0m
**.updateInterval = 1s # test with 0s too, and let getCurrentPosition update the display string from a test module
**.mobility.initFromDisplayString = false
**.mobilityType = "SWIMMobility"
**.mobility.noOfLocations = 200
**.mobility.Hosts = 100
**.mobility.popularityDecisionThreshold = 7
**.mobility.returnHomePercentage = 15
**.mobility.neighbourLocationLimit = 200m
**.mobility.speed = 10.0mps
**.mobility.radius = 2m
**.mobility.alpha = 0.5
**.mobility.waitTime = uniform(15s, 30s, 5) # 20 mins - 8 hrs
**.mobility.usedRNG = 5


[Config Herald-NeighbourhoodForwarder-SFO-Same-Opp-Stat-RSSI-speed]

# application layer (herald)
**.applicationLayer = "KHeraldApp"
**.app.dataGenerationInterval = 900s # every 1/4 of an hour - we simulate for 7 days
**.app.dataSizeInBytes = 10000
**.app.popularityAssignmentPercentage = 25
**.app.usedRNG = 1



# forwarding layer parameters
**.forwardingLayer = "KNeighbourOrderedForwarding"
**.forwarding.maximumCacheSize = 5000000byte # 5 MB cache
**.forwarding.antiEntropyInterval = 300s
**.forwarding.maximumHopCount = 25
**.forwarding.usedRNG = 3
#**.forwarding.selectedPriorityList = "PRIORITY_SAME_DIRECTION PRIORITY_OPPOSITE_DIRECTION PRIORITY_STATIONARY"



# wireless interface parameters
**.linkLayer = "KWirelessInterfaceWithAngle"
**.link.wirelessRange = 30m
**.link.neighbourScanInterval = 1s
**.link.bandwidthBitRate = 100000bps # 100 Kbps
**.link.wirelessHeaderSize = 16byte # BT header
**.link.usedRNG = 4



# INET mobility parameters (BonnMotion) with SF-Taxi trace
#**.mobilityType = "BonnMotionMobility"
#**.mobility.traceFile = "./all_traces.gpx.movements"
#**.mobility.nodeId = -1  #means "host module's index"

# INET mobility parameters (SWIM)
**.constraintAreaMinX = 0m
**.constraintAreaMinY = 0m
**.constraintAreaMinZ = 0m
**.constraintAreaMaxX = 1500m
**.constraintAreaMaxY = 1500m
**.constraintAreaMaxZ = 0m
**.updateInterval = 1s # test with 0s too, and let getCurrentPosition update the display string from a test module
**.mobility.initFromDisplayString = false
**.mobilityType = "SWIMMobility"
**.mobility.noOfLocations = 200
**.mobility.Hosts = 500
**.mobility.popularityDecisionThreshold = 7
**.mobility.returnHomePercentage = 15
**.mobility.neighbourLocationLimit = 200m
**.mobility.speed = 1.5mps
**.mobility.radius = 2m
**.mobility.alpha = 0.5
**.mobility.waitTime = uniform(10s, 20s, 5) # 20 mins - 8 hrs
**.mobility.usedRNG = 5


[Config Herald-MobilitySameDirection-SFO-Same-and-Stat]

# application layer (herald)
**.applicationLayer = "KHeraldApp"
**.app.dataGenerationInterval = 900s # every 1/4 of an hour - we simulate for 7 days
**.app.dataSizeInBytes = 10000
**.app.popularityAssignmentPercentage = 25
**.app.usedRNG = 1



# forwarding layer parameters
**.forwardingLayer = "KMobilitySameDirection"
**.forwarding.maximumCacheSize = 5000000byte # 5 MB cache
**.forwarding.antiEntropyInterval = 300s
**.forwarding.maximumHopCount = 25
**.forwarding.usedRNG = 3
**.forwarding.selectedPriorityList = "PRIORITY_STATIONARY PRIORITY_SAME_DIRECTION"



# wireless interface parameters
**.linkLayer = "KWirelessInterfaceWithAngle"
**.link.wirelessRange = 30m
**.link.neighbourScanInterval = 1s
**.link.bandwidthBitRate = 100000bps # 100 Kbps
**.link.wirelessHeaderSize = 16byte # BT header
**.link.usedRNG = 4



# INET mobility parameters (BonnMotion) with SF-Taxi trace
**.mobilityType = "BonnMotionMobility"
**.mobility.traceFile = "./all_traces.gpx.movements"
**.mobility.nodeId = -1  #means "host module's index"



[Config Herald-MobilitySameDirection-SFO-Opp-and-Stat]

# application layer (herald)
**.applicationLayer = "KHeraldApp"
**.app.dataGenerationInterval = 900s # every 1/4 of an hour - we simulate for 7 days
**.app.dataSizeInBytes = 10000
**.app.popularityAssignmentPercentage = 25
**.app.usedRNG = 1



# forwarding layer parameters
**.forwardingLayer = "KMobilitySameDirection"
**.forwarding.maximumCacheSize = 5000000byte # 5 MB cache
**.forwarding.antiEntropyInterval = 300s
**.forwarding.maximumHopCount = 25
**.forwarding.usedRNG = 3
**.forwarding.selectedPriorityList = "PRIORITY_STATIONARY PRIORITY_OPPOSITE_DIRECTION"



# wireless interface parameters
**.linkLayer = "KWirelessInterfaceWithAngle"
**.link.wirelessRange = 30m
**.link.neighbourScanInterval = 1s
**.link.bandwidthBitRate = 100000bps # 100 Kbps
**.link.wirelessHeaderSize = 16byte # BT header
**.link.usedRNG = 4



# INET mobility parameters (BonnMotion) with SF-Taxi trace
**.mobilityType = "BonnMotionMobility"
**.mobility.traceFile = "./all_traces.gpx.movements"
**.mobility.nodeId = -1  #means "host module's index"



[Config Herald-MobilitySameDirection-SFO-Same-Opp-and-Stat]

# application layer (herald)
**.applicationLayer = "KHeraldApp"
**.app.dataGenerationInterval = 900s # every 1/4 of an hour - we simulate for 7 days
**.app.dataSizeInBytes = 10000
**.app.popularityAssignmentPercentage = 25
**.app.usedRNG = 1



# forwarding layer parameters
**.forwardingLayer = "KMobilitySameDirection"
**.forwarding.maximumCacheSize = 5000000byte # 5 MB cache
**.forwarding.antiEntropyInterval = 300s
**.forwarding.maximumHopCount = 25
**.forwarding.usedRNG = 3
**.forwarding.selectedPriorityList = "PRIORITY_STATIONARY PRIORITY_SAME_DIRECTION PRIORITY_OPPOSITE_DIRECTION"



# wireless interface parameters
**.linkLayer = "KWirelessInterfaceWithAngle"
**.link.wirelessRange = 30m
**.link.neighbourScanInterval = 1s
**.link.bandwidthBitRate = 100000bps # 100 Kbps
**.link.wirelessHeaderSize = 16byte # BT header
**.link.usedRNG = 4



# INET mobility parameters (BonnMotion) with SF-Taxi trace
**.mobilityType = "BonnMotionMobility"
**.mobility.traceFile = "./all_traces.gpx.movements"
**.mobility.nodeId = -1  #means "host module's index"



[Config Herald-MobilitySameDirection-SFO-Same-Only]

# application layer (herald)
**.applicationLayer = "KHeraldApp"
**.app.dataGenerationInterval = 900s # every 1/4 of an hour - we simulate for 7 days
**.app.dataSizeInBytes = 10000
**.app.popularityAssignmentPercentage = 25
**.app.usedRNG = 1



# forwarding layer parameters
**.forwardingLayer = "KMobilitySameDirection"
**.forwarding.maximumCacheSize = 5000000byte # 5 MB cache
**.forwarding.antiEntropyInterval = 300s
**.forwarding.maximumHopCount = 25
**.forwarding.usedRNG = 3
**.forwarding.selectedPriorityList = "PRIORITY_SAME_DIRECTION"



# wireless interface parameters
**.linkLayer = "KWirelessInterfaceWithAngle"
**.link.wirelessRange = 30m
**.link.neighbourScanInterval = 1s
**.link.bandwidthBitRate = 100000bps # 100 Kbps
**.link.wirelessHeaderSize = 16byte # BT header
**.link.usedRNG = 4



# INET mobility parameters (BonnMotion) with SF-Taxi trace
**.mobilityType = "BonnMotionMobility"
**.mobility.traceFile = "./all_traces.gpx.movements"
**.mobility.nodeId = -1  #means "host module's index"



[Config Herald-MobilitySameDirection-SFO-Opp-Only]

# application layer (herald)
**.applicationLayer = "KHeraldApp"
**.app.dataGenerationInterval = 900s # every 1/4 of an hour - we simulate for 7 days
**.app.dataSizeInBytes = 10000
**.app.popularityAssignmentPercentage = 25
**.app.usedRNG = 1



# forwarding layer parameters
**.forwardingLayer = "KMobilitySameDirection"
**.forwarding.maximumCacheSize = 5000000byte # 5 MB cache
**.forwarding.antiEntropyInterval = 300s
**.forwarding.maximumHopCount = 25
**.forwarding.usedRNG = 3
**.forwarding.selectedPriorityList = "PRIORITY_OPPOSITE_DIRECTION"



# wireless interface parameters
**.linkLayer = "KWirelessInterfaceWithAngle"
**.link.wirelessRange = 30m
**.link.neighbourScanInterval = 1s
**.link.bandwidthBitRate = 100000bps # 100 Kbps
**.link.wirelessHeaderSize = 16byte # BT header
**.link.usedRNG = 4



# INET mobility parameters (BonnMotion) with SF-Taxi trace
**.mobilityType = "BonnMotionMobility"
**.mobility.traceFile = "./all_traces.gpx.movements"
**.mobility.nodeId = -1  #means "host module's index"



[Config Herald-MobilitySameDirection-SFO-Stat-Only]

# application layer (herald)
**.applicationLayer = "KHeraldApp"
**.app.dataGenerationInterval = 900s # every 1/4 of an hour - we simulate for 7 days
**.app.dataSizeInBytes = 10000
**.app.popularityAssignmentPercentage = 25
**.app.usedRNG = 1



# forwarding layer parameters
**.forwardingLayer = "KMobilitySameDirection"
**.forwarding.maximumCacheSize = 5000000byte # 5 MB cache
**.forwarding.antiEntropyInterval = 300s
**.forwarding.maximumHopCount = 25
**.forwarding.usedRNG = 3
**.forwarding.selectedPriorityList = "PRIORITY_STATIONARY"



# wireless interface parameters
**.linkLayer = "KWirelessInterfaceWithAngle"
**.link.wirelessRange = 30m
**.link.neighbourScanInterval = 1s
**.link.bandwidthBitRate = 100000bps # 100 Kbps
**.link.wirelessHeaderSize = 16byte # BT header
**.link.usedRNG = 4



# INET mobility parameters (BonnMotion) with SF-Taxi trace
**.mobilityType = "BonnMotionMobility"
**.mobility.traceFile = "./all_traces.gpx.movements"
**.mobility.nodeId = -1  #means "host module's index"






















#######################################




[Config Herald-MobilitySameDirection-SWIM]

# application layer (herald)
**.applicationLayer = "KHeraldApp"
**.app.dataGenerationInterval = 900s # every 1/4 of an hour - we simulate for 7 days
**.app.dataSizeInBytes = 10000
**.app.popularityAssignmentPercentage = 25
**.app.usedRNG = 1



# forwarding layer parameters
**.forwardingLayer = "KMobilitySameDirection"
**.forwarding.maximumCacheSize = 5000000byte # 5 MB cache
**.forwarding.antiEntropyInterval = 300s
**.forwarding.maximumHopCount = 25
**.forwarding.usedRNG = 3



# wireless interface parameters
**.linkLayer = "KWirelessInterfaceWithAngle"
**.link.wirelessRange = 30m
**.link.neighbourScanInterval = 1s
**.link.bandwidthBitRate = 100000bps # 100 Kbps
**.link.wirelessHeaderSize = 16byte # BT header
**.link.usedRNG = 4



# INET mobility parameters (SWIM)
**.constraintAreaMinX = 0m
**.constraintAreaMinY = 0m
**.constraintAreaMinZ = 0m
**.constraintAreaMaxX = 1500m
**.constraintAreaMaxY = 1500m
**.constraintAreaMaxZ = 0m
**.updateInterval = 1s # test with 0s too, and let getCurrentPosition update the display string from a test module
**.mobility.initFromDisplayString = false
**.mobilityType = "SWIMMobility"
**.mobility.noOfLocations = 200
**.mobility.Hosts = 200
**.mobility.popularityDecisionThreshold = 7
**.mobility.returnHomePercentage = 15
**.mobility.neighbourLocationLimit = 200m
**.mobility.speed = 30.0mps
**.mobility.radius = 2m
**.mobility.alpha = 0.5
**.mobility.waitTime = uniform(300s,900s, 5) # 20 mins - 8 hrs
**.mobility.usedRNG = 5


[Config Herald-Epidemic-SWIM]

# application layer (herald)
**.applicationLayer = "KHeraldApp"
**.app.dataGenerationInterval = 900s # every 1/4 of an hour - we simulate for 7 days
**.app.dataSizeInBytes = 10000
**.app.popularityAssignmentPercentage = 25
**.app.usedRNG = 1



# forwarding layer parameters
**.forwardingLayer = "KEpidemicRoutingLayer"
**.forwarding.maximumCacheSize = 5000000byte # 5 MB cache
**.forwarding.antiEntropyInterval = 300s
**.forwarding.maximumHopCount = 25
**.forwarding.usedRNG = 3



# wireless interface parameters
**.linkLayer = "KWirelessInterface"
**.link.wirelessRange = 30m
**.link.neighbourScanInterval = 1s
**.link.bandwidthBitRate = 100000bps # 100 Kbps
**.link.wirelessHeaderSize = 16byte # BT header
**.link.usedRNG = 4



# INET mobility parameters (SWIM)
**.constraintAreaMinX = 0m
**.constraintAreaMinY = 0m
**.constraintAreaMinZ = 0m
**.constraintAreaMaxX = 1500m
**.constraintAreaMaxY = 1500m
**.constraintAreaMaxZ = 0m
**.updateInterval = 1s # test with 0s too, and let getCurrentPosition update the display string from a test module
**.mobility.initFromDisplayString = false
**.mobilityType = "SWIMMobility"
**.mobility.noOfLocations = 200
**.mobility.Hosts = 200
**.mobility.popularityDecisionThreshold = 7
**.mobility.returnHomePercentage = 15
**.mobility.neighbourLocationLimit = 200m
**.mobility.speed = ${1.5, 5.0, 10.0, 15.0, 20.0, 25.0, 30.0}mps
**.mobility.radius = 2m
**.mobility.alpha = 0.5
**.mobility.waitTime = uniform(1200s, 28800s, 5) # 20 mins - 8 hrs
**.mobility.usedRNG = 5



[Config Herald-Keetchi-SWIM]

# application layer (herald)
**.applicationLayer = "KHeraldApp"
**.app.dataGenerationInterval = 900s # every 1/4 of an hour - we simulate for 7 days
**.app.dataSizeInBytes = 10000
**.app.popularityAssignmentPercentage = 25
**.app.usedRNG = 1



# forwarding layer parameters
**.forwardingLayer = "KKeetchiLayer"
**.forwarding.agingInterval = 600s
**.forwarding.maximumCacheSize = 5000000byte # 5 MB cache
**.forwarding.neighbourhoodChangeSignificanceThreshold = 0.25
**.forwarding.coolOffDuration = 300s
**.forwarding.learningConst = 0.5
**.forwarding.backoffTimerIncrementFactor = 1.5
**.forwarding.usedRNG = 3



# wireless interface parameters
**.linkLayer = "KWirelessInterface"
**.link.wirelessRange = 30m
**.link.neighbourScanInterval = 1s
**.link.bandwidthBitRate = 100000bps # 100 Kbps
**.link.wirelessHeaderSize = 16byte # BT header
**.link.usedRNG = 4



# INET mobility parameters (SWIM)
**.constraintAreaMinX = 0m
**.constraintAreaMinY = 0m
**.constraintAreaMinZ = 0m
**.constraintAreaMaxX = 1500m
**.constraintAreaMaxY = 1500m
**.constraintAreaMaxZ = 0m
**.updateInterval = 1s # test with 0s too, and let getCurrentPosition update the display string from a test module
**.mobility.initFromDisplayString = false
**.mobilityType = "SWIMMobility"
**.mobility.noOfLocations = 200
**.mobility.Hosts = 500
**.mobility.popularityDecisionThreshold = 7
**.mobility.returnHomePercentage = 15
**.mobility.neighbourLocationLimit = 200m
**.mobility.speed = 1.5mps
**.mobility.radius = 2m
**.mobility.alpha = 0.5
**.mobility.waitTime = uniform(1200s, 28800s, 5) # 20 mins - 8 hrs
**.mobility.usedRNG = 5



[Config Herald-Optimum-Delay-SWIM]

# application layer (herald)
**.applicationLayer = "KHeraldApp"
**.app.dataGenerationInterval = 900s # every 1/4 of an hour - we simulate for 7 days
**.app.dataSizeInBytes = 10000
**.app.popularityAssignmentPercentage = 25
**.app.usedRNG = 1



# forwarding layer parameters
**.forwardingLayer = "KOptimumDelayRoutingLayer"



# wireless interface parameters
**.linkLayer = "KWirelessInterface"
**.link.wirelessRange = 30m
**.link.neighbourScanInterval = 1s
**.link.bandwidthBitRate = 100000bps # 100 Kbps
**.link.wirelessHeaderSize = 16byte # BT header
**.link.usedRNG = 4



# INET mobility parameters (SWIM)
**.constraintAreaMinX = 0m
**.constraintAreaMinY = 0m
**.constraintAreaMinZ = 0m
**.constraintAreaMaxX = 1500m
**.constraintAreaMaxY = 1500m
**.constraintAreaMaxZ = 0m
**.updateInterval = 1s # test with 0s too, and let getCurrentPosition update the display string from a test module
**.mobility.initFromDisplayString = false
**.mobilityType = "SWIMMobility"
**.mobility.noOfLocations = 200
**.mobility.Hosts = 200
**.mobility.popularityDecisionThreshold = 7
**.mobility.returnHomePercentage = 15
**.mobility.neighbourLocationLimit = 200m
**.mobility.speed = ${1.5, 5.0, 10.0, 15.0, 20.0, 25.0, 30.0}mps
**.mobility.radius = 2m
**.mobility.alpha = 0.5
**.mobility.waitTime = uniform(1200s, 28800s, 5) # 20 mins - 8 hrs
**.mobility.usedRNG = 5



[Config Herald-RRS-SWIM]

# application layer (herald)
**.applicationLayer = "KHeraldApp"
**.app.dataGenerationInterval = 900s # every 1/4 of an hour - we simulate for 7 days
**.app.dataSizeInBytes = 10000
**.app.popularityAssignmentPercentage = 25
**.app.usedRNG = 1



# forwarding layer parameters
**.forwardingLayer = "KRRSLayer"
**.forwarding.maximumCacheSize = 5000000byte # 5 MB cache
**.forwarding.usedRNG = 3
**.forwarding.broadcastRRS = false
**.forwarding.sendOnNeighReportingFrequency = false
**.forwarding.sendFrequencyWhenNotOnNeighFrequency = 4s



# wireless interface parameters
**.linkLayer = "KWirelessInterface"
**.link.wirelessRange = 30m
**.link.neighbourScanInterval = 1s
**.link.bandwidthBitRate = 100000bps # 100 Kbps
**.link.wirelessHeaderSize = 16byte # BT header
**.link.usedRNG = 4



# INET mobility parameters (SWIM)
**.constraintAreaMinX = 0m
**.constraintAreaMinY = 0m
**.constraintAreaMinZ = 0m
**.constraintAreaMaxX = 1500m
**.constraintAreaMaxY = 1500m
**.constraintAreaMaxZ = 0m
**.updateInterval = 1s # test with 0s too, and let getCurrentPosition update the display string from a test module
**.mobility.initFromDisplayString = false
**.mobilityType = "SWIMMobility"
**.mobility.noOfLocations = 200
**.mobility.Hosts = 500
**.mobility.popularityDecisionThreshold = 7
**.mobility.returnHomePercentage = 15
**.mobility.neighbourLocationLimit = 200m
**.mobility.speed = 1.5mps
**.mobility.radius = 2m
**.mobility.alpha = 0.5
**.mobility.waitTime = uniform(1200s, 28800s, 5) # 20 mins - 8 hrs
**.mobility.usedRNG = 5



[Config Messenger-Epidemic-SWIM]

# application layer (messenger)
**.applicationLayer = "KMessengerApp"
**.app.dataGenerationInterval = 900s # every 1/4 of an hour - we simulate for 7 days
**.app.dataSizeInBytes = 10000
**.app.usedRNG = 1



# forwarding layer parameters
**.forwardingLayer = "KEpidemicRoutingLayer"
**.forwarding.maximumCacheSize = 5000000byte # 5 MB cache
**.forwarding.antiEntropyInterval = 300s
**.forwarding.maximumHopCount = 25
**.forwarding.usedRNG = 3



# wireless interface parameters
**.linkLayer = "KWirelessInterface"
**.link.wirelessRange = 30m
**.link.neighbourScanInterval = 1s
**.link.bandwidthBitRate = 100000bps # 100 Kbps
**.link.wirelessHeaderSize = 16byte # BT header
**.link.usedRNG = 4



# INET mobility parameters (SWIM)
**.constraintAreaMinX = 0m
**.constraintAreaMinY = 0m
**.constraintAreaMinZ = 0m
**.constraintAreaMaxX = 1500m
**.constraintAreaMaxY = 1500m
**.constraintAreaMaxZ = 0m
**.updateInterval = 1s # test with 0s too, and let getCurrentPosition update the display string from a test module
**.mobility.initFromDisplayString = false
**.mobilityType = "SWIMMobility"
**.mobility.noOfLocations = 200
**.mobility.Hosts = 500
**.mobility.popularityDecisionThreshold = 7
**.mobility.returnHomePercentage = 15
**.mobility.neighbourLocationLimit = 200m
**.mobility.speed = 1.5mps
**.mobility.radius = 2m
**.mobility.alpha = 0.5
**.mobility.waitTime = uniform(1200s, 28800s, 5) # 20 mins - 8 hrs
**.mobility.usedRNG = 5



[Config Messenger-Epidemic-Single-Dest-SWIM]

# application layer (messenger)
**.applicationLayer = "KMessengerApp"
**.app.dataGenerationInterval = 900s # every 1/4 of an hour - we simulate for 7 days
**.app.dataSizeInBytes = 10000
**.app.usedRNG = 1
**.app.singleDestination = true
**.app.singleDestinationNodeName = "host[0]"



# forwarding layer parameters
**.forwardingLayer = "KEpidemicRoutingLayer"
**.forwarding.maximumCacheSize = 5000000byte # 5 MB cache
**.forwarding.antiEntropyInterval = 300s
**.forwarding.maximumHopCount = 25
**.forwarding.usedRNG = 3



# wireless interface parameters
**.linkLayer = "KWirelessInterface"
**.link.wirelessRange = 30m
**.link.neighbourScanInterval = 1s
**.link.bandwidthBitRate = 100000bps # 100 Kbps
**.link.wirelessHeaderSize = 16byte # BT header
**.link.usedRNG = 4



# INET mobility parameters (SWIM)
**.constraintAreaMinX = 0m
**.constraintAreaMinY = 0m
**.constraintAreaMinZ = 0m
**.constraintAreaMaxX = 1500m
**.constraintAreaMaxY = 1500m
**.constraintAreaMaxZ = 0m
**.updateInterval = 1s # test with 0s too, and let getCurrentPosition update the display string from a test module
**.mobility.initFromDisplayString = false
**.mobilityType = "SWIMMobility"
**.mobility.noOfLocations = 200
**.mobility.Hosts = 500
**.mobility.popularityDecisionThreshold = 7
**.mobility.returnHomePercentage = 15
**.mobility.neighbourLocationLimit = 200m
**.mobility.speed = 1.5mps
**.mobility.radius = 2m
**.mobility.alpha = 0.5
**.mobility.waitTime = uniform(1200s, 28800s, 5) # 20 mins - 8 hrs
**.mobility.usedRNG = 5



[Config Messenger-Keetchi-SWIM]

# application layer (messenger)
**.applicationLayer = "KMessengerApp"
**.app.dataGenerationInterval = 900s # every 1/4 of an hour - we simulate for 7 days
**.app.dataSizeInBytes = 10000
**.app.usedRNG = 1



# forwarding layer parameters
**.forwardingLayer = "KKeetchiLayer"
**.forwarding.agingInterval = 600s
**.forwarding.maximumCacheSize = 5000000byte # 5 MB cache
**.forwarding.neighbourhoodChangeSignificanceThreshold = 0.25
**.forwarding.coolOffDuration = 300s
**.forwarding.learningConst = 0.5
**.forwarding.backoffTimerIncrementFactor = 1.5
**.forwarding.usedRNG = 3



# wireless interface parameters
**.linkLayer = "KWirelessInterface"
**.link.wirelessRange = 30m
**.link.neighbourScanInterval = 1s
**.link.bandwidthBitRate = 100000bps # 100 Kbps
**.link.wirelessHeaderSize = 16byte # BT header
**.link.usedRNG = 4



# INET mobility parameters (SWIM)
**.constraintAreaMinX = 0m
**.constraintAreaMinY = 0m
**.constraintAreaMinZ = 0m
**.constraintAreaMaxX = 1500m
**.constraintAreaMaxY = 1500m
**.constraintAreaMaxZ = 0m
**.updateInterval = 1s # test with 0s too, and let getCurrentPosition update the display string from a test module
**.mobility.initFromDisplayString = false
**.mobilityType = "SWIMMobility"
**.mobility.noOfLocations = 200
**.mobility.Hosts = 500
**.mobility.popularityDecisionThreshold = 7
**.mobility.returnHomePercentage = 15
**.mobility.neighbourLocationLimit = 200m
**.mobility.speed = 1.5mps
**.mobility.radius = 2m
**.mobility.alpha = 0.5
**.mobility.waitTime = uniform(1200s, 28800s, 5) # 20 mins - 8 hrs
**.mobility.usedRNG = 5



[Config Messenger-Optimum-Delay-SWIM]

# application layer (messenger)
**.applicationLayer = "KMessengerApp"
**.app.dataGenerationInterval = 900s # every 1/4 of an hour - we simulate for 7 days
**.app.dataSizeInBytes = 10000
**.app.usedRNG = 1



# forwarding layer parameters
**.forwardingLayer = "KOptimumDelayRoutingLayer"



# wireless interface parameters
**.linkLayer = "KWirelessInterface"
**.link.wirelessRange = 30m
**.link.neighbourScanInterval = 1s
**.link.bandwidthBitRate = 100000bps # 100 Kbps
**.link.wirelessHeaderSize = 16byte # BT header
**.link.usedRNG = 4



# INET mobility parameters (SWIM)
**.constraintAreaMinX = 0m
**.constraintAreaMinY = 0m
**.constraintAreaMinZ = 0m
**.constraintAreaMaxX = 1500m
**.constraintAreaMaxY = 1500m
**.constraintAreaMaxZ = 0m
**.updateInterval = 1s # test with 0s too, and let getCurrentPosition update the display string from a test module
**.mobility.initFromDisplayString = false
**.mobilityType = "SWIMMobility"
**.mobility.noOfLocations = 200
**.mobility.Hosts = 500
**.mobility.popularityDecisionThreshold = 7
**.mobility.returnHomePercentage = 15
**.mobility.neighbourLocationLimit = 200m
**.mobility.speed = 1.5mps
**.mobility.radius = 2m
**.mobility.alpha = 0.5
**.mobility.waitTime = uniform(1200s, 28800s, 5) # 20 mins - 8 hrs
**.mobility.usedRNG = 5



[Config Messenger-PRoPHET-SWIM]

# application layer (messenger)
**.applicationLayer = "KMessengerApp"
**.app.dataGenerationInterval = 900s # every 1/4 of an hour - we simulate for 7 days
**.app.dataSizeInBytes = 10000
**.app.usedRNG = 1



# forwarding layer parameters
**.forwardingLayer = "KProphetRoutingLayer"
**.forwarding.maximumCacheSize = 5000000byte # 5 MB cache
**.forwarding.antiEntropyInterval = 300s
**.forwarding.maximumHopCount = 25
**.forwarding.usedRNG = 3
**.forwarding.pEncounterMax = 0.7
**.forwarding.pEncounterFirst = 0.5
**.forwarding.pFirstThreshold = 0.1
**.forwarding.alpha = 0.5
**.forwarding.beta = 0.9
**.forwarding.gamma = 0.998
**.forwarding.delta = 0.1
**.forwarding.standardTimeInterval = 3600s



# wireless interface parameters
**.linkLayer = "KWirelessInterface"
**.link.wirelessRange = 30m
**.link.neighbourScanInterval = 1s
**.link.bandwidthBitRate = 100000bps # 100 Kbps
**.link.wirelessHeaderSize = 16byte # BT header
**.link.usedRNG = 4



# INET mobility parameters (SWIM)
**.constraintAreaMinX = 0m
**.constraintAreaMinY = 0m
**.constraintAreaMinZ = 0m
**.constraintAreaMaxX = 1500m
**.constraintAreaMaxY = 1500m
**.constraintAreaMaxZ = 0m
**.updateInterval = 1s # test with 0s too, and let getCurrentPosition update the display string from a test module
**.mobility.initFromDisplayString = false
**.mobilityType = "SWIMMobility"
**.mobility.noOfLocations = 200
**.mobility.Hosts = 500
**.mobility.popularityDecisionThreshold = 7
**.mobility.returnHomePercentage = 15
**.mobility.neighbourLocationLimit = 200m
**.mobility.speed = 1.5mps
**.mobility.radius = 2m
**.mobility.alpha = 0.5
**.mobility.waitTime = uniform(1200s, 28800s, 5) # 20 mins - 8 hrs
**.mobility.usedRNG = 5



[Config Messenger-RRS-SWIM]

# application layer (messenger)
**.applicationLayer = "KMessengerApp"
**.app.dataGenerationInterval = 900s # every 1/4 of an hour - we simulate for 7 days
**.app.dataSizeInBytes = 10000
**.app.usedRNG = 1



# forwarding layer parameters
**.forwardingLayer = "KRRSLayer"
**.forwarding.maximumCacheSize = 5000000byte # 5 MB cache
**.forwarding.usedRNG = 3
**.forwarding.broadcastRRS = false
**.forwarding.sendOnNeighReportingFrequency = false
**.forwarding.sendFrequencyWhenNotOnNeighFrequency = 4s



# wireless interface parameters
**.linkLayer = "KWirelessInterface"
**.link.wirelessRange = 30m
**.link.neighbourScanInterval = 1s
**.link.bandwidthBitRate = 100000bps # 100 Kbps
**.link.wirelessHeaderSize = 16byte # BT header
**.link.usedRNG = 4


